output/1_3PAS_1/Cargas_MT_DU10_1_3PAS_1.dss
New "Load.MT_62859_51_M1" bus1="628591.1.2.3.4" phases=3 conn=Delta model=2 kv=23.1 kw = 0.0000000 pf=0.92 status=variable vmaxpu=1.5 vminpu=0.93 daily="MT6_DU" 
New "Load.MT_62859_51_M2" bus1="628591.1.2.3.4" phases=3 conn=Delta model=3 kv=23.1 kw = 0.0000000 pf=0.92 status=variable vmaxpu=1.5 vminpu=0.93 daily="MT6_DU"
 
New "Load.MT_72775_74_M1" bus1="727751.1.2.3.4" phases=3 conn=Delta model=2 kv=23.1 kw = 0.8231524 pf=0.92 status=variable vmaxpu=1.5 vminpu=0.93 daily="MT3_DU" 
New "Load.MT_72775_74_M2" bus1="727751.1.2.3.4" phases=3 conn=Delta model=3 kv=23.1 kw = 0.8231524 pf=0.92 status=variable vmaxpu=1.5 vminpu=0.93 daily="MT3_DU"
 
